AMOSTRA/TUM/GD.dss
! GERACAO DISTRIBUIDA — gerada de UGBT_tab e UGMT_tab
! Unidades com potencia nula sao omitidas (gerariam NaN).
! 350 unidades descartadas por potencia nula.
! 818 unidades de BT realocadas para o secundario do transformador (rede secundaria nao modelada).
! 0 unidades descartadas por ponto de conexao ausente da rede.
! irradiance=1 — ver o docstring: 1,0 e meio-dia de ceu claro, nao a ponta de carga.
! 11 barras tiveram a GD limitada a capacidade do transformador (98 kW cortados).
! inversores em pf=1 — ver o docstring de _pv: 0,92 e capacidade exigida pelo PRODIST, nao despacho.
! 0 unidades de MT ligadas pelo PAC da carga (casadas por CEG_GD): o PAC da UGMT nao existe na SSDMT.
New PVSystem.GD_bacbf5f5804ab64ff212a442202364636adbb165ba71f05964943c576a8ffcac phases=3 bus1=16307-11088317.1.2.3 conn=wye kv=13.8000 pf=1 pmpp=9.00 kva=9.00 irradiance=1 temperature=25 %cutin=20 %cutout=20 effcurve=MyEff P-TCurve=MyPvsT Daily=IRRAD_DIA TDaily=TEMP_DIA
New PVSystem.GD_fff072c8d7360ab742dc804069d5baa3776b4f43cf8fecb3ed428c2832be6093 phases=3 bus1=21682-12849397.1.2.3 conn=wye kv=13.8000 pf=1 pmpp=4.87 kva=4.87 irradiance=1 temperature=25 %cutin=20 %cutout=20 effcurve=MyEff P-TCurve=MyPvsT Daily=IRRAD_DIA TDaily=TEMP_DIA
New PVSystem.GD_2ca1d880ca90b1089e7aec0b8bb2bce9b4bb1fc28d1a62f8b6b79313ff37e9dd phases=3 bus1=16307-11090098.1.2.3 conn=wye kv=13.8000 pf=1 pmpp=1.75 kva=1.75 irradiance=1 temperature=25 %cutin=20 %cutout=20 effcurve=MyEff P-TCurve=MyPvsT Daily=IRRAD_DIA TDaily=TEMP_DIA
New PVSystem.GD_31d45d35a0440a17b70d468f3522f0d4d7f3a5d466af40a579b46fcba71f164d phases=3 bus1=16307-11088320.1.2.3 conn=wye kv=13.8000 pf=1 pmpp=18.04 kva=18.04 irradiance=1 temperature=25 %cutin=20 %cutout=20 effcurve=MyEff P-TCurve=MyPvsT Daily=IRRAD_DIA TDaily=TEMP_DIA
New PVSystem.GD_25ec92ec519255273f51e1af19401f3f244cb1647ca9437bc038d6b73ff99f7f phases=3 bus1=16307-11637699.1.2.3 conn=wye kv=13.8000 pf=1 pmpp=7.84 kva=7.84 irradiance=1 temperature=25 %cutin=20 %cutout=20 effcurve=MyEff P-TCurve=MyPvsT Daily=IRRAD_DIA TDaily=TEMP_DIA
New PVSystem.GD_716b2469d869f62902a2a9617d8acd5466c6d6a969247e7c365174192a34c696 phases=3 bus1=12786-8078378.1.2.3 conn=wye kv=13.8000 pf=1 pmpp=31.23 kva=31.23 irradiance=1 temperature=25 %cutin=20 %cutout=20 effcurve=MyEff P-TCurve=MyPvsT Daily=IRRAD_DIA TDaily=TEMP_DIA
New PVSystem.GD_e3a9f2f87025a7bf3c411b586ce8dee2b9c43b398c3bda1bb2605f70c88ddfb0 phases=3 bus1=12786-8076758.1.2.3 conn=wye kv=13.8000 pf=1 pmpp=2.65 kva=2.65 irradiance=1 temperature=25 %cutin=20 %cutout=20 effcurve=MyEff P-TCurve=MyPvsT Daily=IRRAD_DIA TDaily=TEMP_DIA
New PVSystem.GD_1d5b37898becca64f74a73b2d3fc6d989b15f198fbc348a353b8f018c7f911ee phases=3 bus1=21682-11087700.1.2.3 conn=wye kv=13.8000 pf=1 pmpp=2.61 kva=2.61 irradiance=1 temperature=25 %cutin=20 %cutout=20 effcurve=MyEff P-TCurve=MyPvsT Daily=IRRAD_DIA TDaily=TEMP_DIA
New PVSystem.GD_05b1acec0303adda4ab9b68b58362d9f5943874110a0c37dbcfd8400c1ce682d phases=3 bus1=16307-11089610.1.2.3 conn=wye kv=13.8000 pf=1 pmpp=14.71 kva=14.71 irradiance=1 temperature=25 %cutin=20 %cutout=20 effcurve=MyEff P-TCurve=MyPvsT Daily=IRRAD_DIA TDaily=TEMP_DIA
New PVSystem.GD_1a7c1ad10ac9de87e7fe8711b5e5d827ef027900672d1132338d9d1d8680d1f6 phases=3 bus1=12786-8077385.1.2.3 conn=wye kv=13.8000 pf=1 pmpp=17.21 kva=17.21 irradiance=1 temperature=25 %cutin=20 %cutout=20 effcurve=MyEff P-TCurve=MyPvsT Daily=IRRAD_DIA TDaily=TEMP_DIA
New PVSystem.GD_4d28dd60d2faf8cf21e7e851e235dd8e6754964e0f6a9d88c87f14e66c3d559e phases=3 bus1=12786-8077385.1.2.3 conn=wye kv=13.8000 pf=1 pmpp=14.04 kva=14.04 irradiance=1 temperature=25 %cutin=20 %cutout=20 effcurve=MyEff P-TCurve=MyPvsT Daily=IRRAD_DIA TDaily=TEMP_DIA
New PVSystem.GD_8be542023afdaa21ff087d6054c6ef99375940ebcdc9da714d0d17fab982b4ac_1 phases=1 bus1=3053156-12044654v.1.4 conn=wye kv=0.1100 pf=1 pmpp=2.28 kva=2.28 irradiance=1 temperature=25 %cutin=20 %cutout=20 effcurve=MyEff P-TCurve=MyPvsT Daily=IRRAD_DIA TDaily=TEMP_DIA
New PVSystem.GD_8be542023afdaa21ff087d6054c6ef99375940ebcdc9da714d0d17fab982b4ac_2 phases=1 bus1=3053156-12044654v.2.4 conn=wye kv=0.1100 pf=1 pmpp=2.28 kva=2.28 irradiance=1 temperature=25 %cutin=20 %cutout=20 effcurve=MyEff P-TCurve=MyPvsT Daily=IRRAD_DIA TDaily=TEMP_DIA
New PVSystem.GD_12ef48aa6d18605d66615334bb08a9c6c02637a41797ec8174a41a669badcf3c_1 phases=1 bus1=2819158-11112370.1.4 conn=wye kv=0.1100 pf=1 pmpp=1.23 kva=1.23 irradiance=1 temperature=25 %cutin=20 %cutout=20 effcurve=MyEff P-TCurve=MyPvsT Daily=IRRAD_DIA TDaily=TEMP_DIA
New PVSystem.GD_12ef48aa6d18605d66615334bb08a9c6c02637a41797ec8174a41a669badcf3c_2 phases=1 bus1=2819158-11112370.2.4 conn=wye kv=0.1100 pf=1 pmpp=1.23 kva=1.23 irradiance=1 temperature=25 %cutin=20 %cutout=20 effcurve=MyEff P-TCurve=MyPvsT Daily=IRRAD_DIA TDaily=TEMP_DIA
New PVSystem.GD_0e1abe381cfbb3f20612b0aa76f536e9f8dc7edf352c322d9c75aaa84b77d73d_1 phases=1 bus1=2819951-11100577.1.4 conn=wye kv=0.1100 pf=1 pmpp=1.06 kva=1.06 irradiance=1 temperature=25 %cutin=20 %cutout=20 effcurve=MyEff P-TCurve=MyPvsT Daily=IRRAD_DIA TDaily=TEMP_DIA
New PVSystem.GD_0e1abe381cfbb3f20612b0aa76f536e9f8dc7edf352c322d9c75aaa84b77d73d_2 phases=1 bus1=2819951-11100577.2.4 conn=wye kv=0.1100 pf=1 pmpp=1.06 kva=1.06 irradiance=1 temperature=25 %cutin=20 %cutout=20 effcurve=MyEff P-TCurve=MyPvsT Daily=IRRAD_DIA TDaily=TEMP_DIA
New PVSystem.GD_857cd23825cb49ffbc4bf76565ebbd52a6dd65f563c98a959ed28da2569a7640_1 phases=1 bus1=2817263-11102222v.1.4 conn=wye kv=0.1100 pf=1 pmpp=2.34 kva=2.34 irradiance=1 temperature=25 %cutin=20 %cutout=20 effcurve=MyEff P-TCurve=MyPvsT Daily=IRRAD_DIA TDaily=TEMP_DIA
New PVSystem.GD_857cd23825cb49ffbc4bf76565ebbd52a6dd65f563c98a959ed28da2569a7640_2 phases=1 bus1=2817263-11102222v.2.4 conn=wye kv=0.1100 pf=1 pmpp=2.34 kva=2.34 irradiance=1 temperature=25 %cutin=20 %cutout=20 effcurve=MyEff P-TCurve=MyPvsT Daily=IRRAD_DIA TDaily=TEMP_DIA
New PVSystem.GD_96e3067b8efa1e38fc2a3d98594893611913e6f7de3a7571737379e2930e13fc_1 phases=1 bus1=2818702-11109093.1.4 conn=wye kv=0.1100 pf=1 pmpp=0.63 kva=0.63 irradiance=1 temperature=25 %cutin=20 %cutout=20 effcurve=MyEff P-TCurve=MyPvsT Daily=IRRAD_DIA TDaily=TEMP_DIA
New PVSystem.GD_96e3067b8efa1e38fc2a3d98594893611913e6f7de3a7571737379e2930e13fc_2 phases=1 bus1=2818702-11109093.2.4 conn=wye kv=0.1100 pf=1 pmpp=0.63 kva=0.63 irradiance=1 temperature=25 %cutin=20 %cutout=20 effcurve=MyEff P-TCurve=MyPvsT Daily=IRRAD_DIA TDaily=TEMP_DIA
New PVSystem.GD_baf763ddb97beb0451d2ded0eec8b2def7a21a4bd2a55415766df42d345466c0_1 phases=1 bus1=2819585-11114368v.1.4 conn=wye kv=0.1100 pf=1 pmpp=2.13 kva=2.13 irradiance=1 temperature=25 %cutin=20 %cutout=20 effcurve=MyEff P-TCurve=MyPvsT Daily=IRRAD_DIA TDaily=TEMP_DIA
New PVSystem.GD_baf763ddb97beb0451d2ded0eec8b2def7a21a4bd2a55415766df42d345466c0_2 phases=1 bus1=2819585-11114368v.2.4 conn=wye kv=0.1100 pf=1 pmpp=2.13 kva=2.13 irradiance=1 temperature=25 %cutin=20 %cutout=20 effcurve=MyEff P-TCurve=MyPvsT Daily=IRRAD_DIA TDaily=TEMP_DIA
New PVSystem.GD_e60c1d3e79d61e26684e0709637e08ebcb2eb547528e933e452749222b287f95_1 phases=1 bus1=2816954-11102272v.1.4 conn=wye kv=0.1100 pf=1 pmpp=0.44 kva=0.44 irradiance=1 temperature=25 %cutin=20 %cutout=20 effcurve=MyEff P-TCurve=MyPvsT Daily=IRRAD_DIA TDaily=TEMP_DIA
New PVSystem.GD_e60c1d3e79d61e26684e0709637e08ebcb2eb547528e933e452749222b287f95_2 phases=1 bus1=2816954-11102272v.2.4 conn=wye kv=0.1100 pf=1 pmpp=0.44 kva=0.44 irradiance=1 temperature=25 %cutin=20 %cutout=20 effcurve=MyEff P-TCurve=MyPvsT Daily=IRRAD_DIA TDaily=TEMP_DIA
New PVSystem.GD_1eab21c992b3c21cdedaf9ee16a285615b0a52ce98c5fdd8aed184d55854ae10_1 phases=1 bus1=2818537-11120771v.1.4 conn=wye kv=0.1100 pf=1 pmpp=2.09 kva=2.09 irradiance=1 temperature=25 %cutin=20 %cutout=20 effcurve=MyEff P-TCurve=MyPvsT Daily=IRRAD_DIA TDaily=TEMP_DIA
New PVSystem.GD_1eab21c992b3c21cdedaf9ee16a285615b0a52ce98c5fdd8aed184d55854ae10_2 phases=1 bus1=2818537-11120771v.2.4 conn=wye kv=0.1100 pf=1 pmpp=2.09 kva=2.09 irradiance=1 temperature=25 %cutin=20 %cutout=20 effcurve=MyEff P-TCurve=MyPvsT Daily=IRRAD_DIA TDaily=TEMP_DIA
New PVSystem.GD_e246ff9cf93fdb6e167e51eb85188d01e1680ceba588b40d099068e10a09fd7c_1 phases=1 bus1=2819812-11106237v.1.4 conn=wye kv=0.1100 pf=1 pmpp=2.50 kva=2.50 irradiance=1 temperature=25 %cutin=20 %cutout=20 effcurve=MyEff P-TCurve=MyPvsT Daily=IRRAD_DIA TDaily=TEMP_DIA
New PVSystem.GD_e246ff9cf93fdb6e167e51eb85188d01e1680ceba588b40d099068e10a09fd7c_2 phases=1 bus1=2819812-11106237v.2.4 conn=wye kv=0.1100 pf=1 pmpp=2.50 kva=2.50 irradiance=1 temperature=25 %cutin=20 %cutout=20 effcurve=MyEff P-TCurve=MyPvsT Daily=IRRAD_DIA TDaily=TEMP_DIA
New PVSystem.GD_b54359013a94a0adf9dd5a6f68a3fdc382d0d2697bb5afd68d925c1ff1c8189b_1 phases=1 bus1=2819526-11102227.1.4 conn=wye kv=0.1100 pf=1 pmpp=0.73 kva=0.73 irradiance=1 temperature=25 %cutin=20 %cutout=20 effcurve=MyEff P-TCurve=MyPvsT Daily=IRRAD_DIA TDaily=TEMP_DIA
New PVSystem.GD_b54359013a94a0adf9dd5a6f68a3fdc382d0d2697bb5afd68d925c1ff1c8189b_2 phases=1 bus1=2819526-11102227.2.4 conn=wye kv=0.1100 pf=1 pmpp=0.73 kva=0.73 irradiance=1 temperature=25 %cutin=20 %cutout=20 effcurve=MyEff P-TCurve=MyPvsT Daily=IRRAD_DIA TDaily=TEMP_DIA
New PVSystem.GD_2aa6319c20b0e3f3fd6df98b24b06c212f6e53def165b1467fd42c0e42afe979_1 phases=1 bus1=2818468-11117486v.1.4 conn=wye kv=0.1100 pf=1 pmpp=1.23 kva=1.23 irradiance=1 temperature=25 %cutin=20 %cutout=20 effcurve=MyEff P-TCurve=MyPvsT Daily=IRRAD_DIA TDaily=TEMP_DIA
New PVSystem.GD_2aa6319c20b0e3f3fd6df98b24b06c212f6e53def165b1467fd42c0e42afe979_2 phases=1 bus1=2818468-11117486v.2.4 conn=wye kv=0.1100 pf=1 pmpp=1.23 kva=1.23 irradiance=1 temperature=25 %cutin=20 %cutout=20 effcurve=MyEff P-TCurve=MyPvsT Daily=IRRAD_DIA TDaily=TEMP_DIA
New PVSystem.GD_bdb1ddcc3afc5f5e6ed6bae34add42ecfa14859966e96f79bdf2ce242335cc2e_1 phases=1 bus1=2816659-11102136.1.4 conn=wye kv=0.1100 pf=1 pmpp=1.59 kva=1.59 irradiance=1 temperature=25 %cutin=20 %cutout=20 effcurve=MyEff P-TCurve=MyPvsT Daily=IRRAD_DIA TDaily=TEMP_DIA
New PVSystem.GD_bdb1ddcc3afc5f5e6ed6bae34add42ecfa14859966e96f79bdf2ce242335cc2e_2 phases=1 bus1=2816659-11102136.2.4 conn=wye kv=0.1100 pf=1 pmpp=1.59 kva=1.59 irradiance=1 temperature=25 %cutin=20 %cutout=20 effcurve=MyEff P-TCurve=MyPvsT Daily=IRRAD_DIA TDaily=TEMP_DIA
New PVSystem.GD_207effd78aaa4b918c5f99a84c008d0a24ff8cde6160ad0e5ba1bd09aae33472_1 phases=1 bus1=2816020-11117370v.1.4 conn=wye kv=0.1100 pf=1 pmpp=2.50 kva=2.50 irradiance=1 temperature=25 %cutin=20 %cutout=20 effcurve=MyEff P-TCurve=MyPvsT Daily=IRRAD_DIA TDaily=TEMP_DIA
New PVSystem.GD_207effd78aaa4b918c5f99a84c008d0a24ff8cde6160ad0e5ba1bd09aae33472_2 phases=1 bus1=2816020-11117370v.2.4 conn=wye kv=0.1100 pf=1 pmpp=2.50 kva=2.50 irradiance=1 temperature=25 %cutin=20 %cutout=20 effcurve=MyEff P-TCurve=MyPvsT Daily=IRRAD_DIA TDaily=TEMP_DIA
New PVSystem.GD_6333693d8dd53626f2e5c180bb7b48c565bcc1cbcc4d783b3a76d9ea2e77f431_1 phases=1 bus1=2816448-11116123.1.4 conn=wye kv=0.1100 pf=1 pmpp=2.46 kva=2.46 irradiance=1 temperature=25 %cutin=20 %cutout=20 effcurve=MyEff P-TCurve=MyPvsT Daily=IRRAD_DIA TDaily=TEMP_DIA
New PVSystem.GD_6333693d8dd53626f2e5c180bb7b48c565bcc1cbcc4d783b3a76d9ea2e77f431_2 phases=1 bus1=2816448-11116123.2.4 conn=wye kv=0.1100 pf=1 pmpp=2.46 kva=2.46 irradiance=1 temperature=25 %cutin=20 %cutout=20 effcurve=MyEff P-TCurve=MyPvsT Daily=IRRAD_DIA TDaily=TEMP_DIA
New PVSystem.GD_c141e1c4677466ea755aa74a3b6548ed1e6acede5c8d9836ad113c8879613265_1 phases=1 bus1=2816085-11109091.1.4 conn=wye kv=0.1100 pf=1 pmpp=1.10 kva=1.10 irradiance=1 temperature=25 %cutin=20 %cutout=20 effcurve=MyEff P-TCurve=MyPvsT Daily=IRRAD_DIA TDaily=TEMP_DIA
New PVSystem.GD_c141e1c4677466ea755aa74a3b6548ed1e6acede5c8d9836ad113c8879613265_2 phases=1 bus1=2816085-11109091.2.4 conn=wye kv=0.1100 pf=1 pmpp=1.10 kva=1.10 irradiance=1 temperature=25 %cutin=20 %cutout=20 effcurve=MyEff P-TCurve=MyPvsT Daily=IRRAD_DIA TDaily=TEMP_DIA
New PVSystem.GD_1a6c2f6c4605b66d8ecb0d9ec509d81a7bc3bc746d032e5c0f87633cc8c99bbb_1 phases=1 bus1=2819956-11114354v.1.4 conn=wye kv=0.1100 pf=1 pmpp=2.49 kva=2.49 irradiance=1 temperature=25 %cutin=20 %cutout=20 effcurve=MyEff P-TCurve=MyPvsT Daily=IRRAD_DIA TDaily=TEMP_DIA
New PVSystem.GD_1a6c2f6c4605b66d8ecb0d9ec509d81a7bc3bc746d032e5c0f87633cc8c99bbb_2 phases=1 bus1=2819956-11114354v.2.4 conn=wye kv=0.1100 pf=1 pmpp=2.49 kva=2.49 irradiance=1 temperature=25 %cutin=20 %cutout=20 effcurve=MyEff P-TCurve=MyPvsT Daily=IRRAD_DIA TDaily=TEMP_DIA
New PVSystem.GD_0678540d1c3b80b2125e98e3debc27d44fea75a604519f9e4f503784caa0b9dc_1 phases=1 bus1=2912078-11394893.1.4 conn=wye kv=0.1270 pf=1 pmpp=0.46 kva=0.46 irradiance=1 temperature=25 %cutin=20 %cutout=20 effcurve=MyEff P-TCurve=MyPvsT Daily=IRRAD_DIA TDaily=TEMP_DIA
New PVSystem.GD_0678540d1c3b80b2125e98e3debc27d44fea75a604519f9e4f503784caa0b9dc_2 phases=1 bus1=2912078-11394893.2.4 conn=wye kv=0.1270 pf=1 pmpp=0.46 kva=0.46 irradiance=1 temperature=25 %cutin=20 %cutout=20 effcurve=MyEff P-TCurve=MyPvsT Daily=IRRAD_DIA TDaily=TEMP_DIA
New PVSystem.GD_0678540d1c3b80b2125e98e3debc27d44fea75a604519f9e4f503784caa0b9dc_3 phases=1 bus1=2912078-11394893.3.4 conn=wye kv=0.1270 pf=1 pmpp=0.46 kva=0.46 irradiance=1 temperature=25 %cutin=20 %cutout=20 effcurve=MyEff P-TCurve=MyPvsT Daily=IRRAD_DIA TDaily=TEMP_DIA
New PVSystem.GD_64b102014b6856d84dcc30a39ed7068c213b9701f9f4ca2fdbbe41ba2baa381c_1 phases=1 bus1=2912078-11394893.1.4 conn=wye kv=0.1270 pf=1 pmpp=5.35 kva=5.35 irradiance=1 temperature=25 %cutin=20 %cutout=20 effcurve=MyEff P-TCurve=MyPvsT Daily=IRRAD_DIA TDaily=TEMP_DIA
New PVSystem.GD_64b102014b6856d84dcc30a39ed7068c213b9701f9f4ca2fdbbe41ba2baa381c_2 phases=1 bus1=2912078-11394893.2.4 conn=wye kv=0.1270 pf=1 pmpp=5.35 kva=5.35 irradiance=1 temperature=25 %cutin=20 %cutout=20 effcurve=MyEff P-TCurve=MyPvsT Daily=IRRAD_DIA TDaily=TEMP_DIA
New PVSystem.GD_64b102014b6856d84dcc30a39ed7068c213b9701f9f4ca2fdbbe41ba2baa381c_3 phases=1 bus1=2912078-11394893.3.4 conn=wye kv=0.1270 pf=1 pmpp=5.35 kva=5.35 irradiance=1 temperature=25 %cutin=20 %cutout=20 effcurve=MyEff P-TCurve=MyPvsT Daily=IRRAD_DIA TDaily=TEMP_DIA
New PVSystem.GD_0b134361769da2fdd4d9cd7c3bca57c2926669848a2e982873fbe5cbf7949ef3_1 phases=1 bus1=2275918-11304633.1.4 conn=wye kv=0.1270 pf=1 pmpp=0.85 kva=0.85 irradiance=1 temperature=25 %cutin=20 %cutout=20 effcurve=MyEff P-TCurve=MyPvsT Daily=IRRAD_DIA TDaily=TEMP_DIA
New PVSystem.GD_0b134361769da2fdd4d9cd7c3bca57c2926669848a2e982873fbe5cbf7949ef3_2 phases=1 bus1=2275918-11304633.2.4 conn=wye kv=0.1270 pf=1 pmpp=0.85 kva=0.85 irradiance=1 temperature=25 %cutin=20 %cutout=20 effcurve=MyEff P-TCurve=MyPvsT Daily=IRRAD_DIA TDaily=TEMP_DIA
New PVSystem.GD_0b134361769da2fdd4d9cd7c3bca57c2926669848a2e982873fbe5cbf7949ef3_3 phases=1 bus1=2275918-11304633.3.4 conn=wye kv=0.1270 pf=1 pmpp=0.85 kva=0.85 irradiance=1 temperature=25 %cutin=20 %cutout=20 effcurve=MyEff P-TCurve=MyPvsT Daily=IRRAD_DIA TDaily=TEMP_DIA
New PVSystem.GD_2d2b3e0fa1115b1cc7a81916694a7a28d2618dc4278533fb17e88e1d93026837_1 phases=1 bus1=2818751-11115870v.1.4 conn=wye kv=0.1100 pf=1 pmpp=1.20 kva=1.20 irradiance=1 temperature=25 %cutin=20 %cutout=20 effcurve=MyEff P-TCurve=MyPvsT Daily=IRRAD_DIA TDaily=TEMP_DIA
New PVSystem.GD_2d2b3e0fa1115b1cc7a81916694a7a28d2618dc4278533fb17e88e1d93026837_2 phases=1 bus1=2818751-11115870v.2.4 conn=wye kv=0.1100 pf=1 pmpp=1.20 kva=1.20 irradiance=1 temperature=25 %cutin=20 %cutout=20 effcurve=MyEff P-TCurve=MyPvsT Daily=IRRAD_DIA TDaily=TEMP_DIA
New PVSystem.GD_7df8fa67fba92582a96084a436e492768ed3ea5195214d1ba98876187cd3cd43_1 phases=1 bus1=2816432-11116311.1.4 conn=wye kv=0.1100 pf=1 pmpp=0.81 kva=0.81 irradiance=1 temperature=25 %cutin=20 %cutout=20 effcurve=MyEff P-TCurve=MyPvsT Daily=IRRAD_DIA TDaily=TEMP_DIA
New PVSystem.GD_7df8fa67fba92582a96084a436e492768ed3ea5195214d1ba98876187cd3cd43_2 phases=1 bus1=2816432-11116311.2.4 conn=wye kv=0.1100 pf=1 pmpp=0.81 kva=0.81 irradiance=1 temperature=25 %cutin=20 %cutout=20 effcurve=MyEff P-TCurve=MyPvsT Daily=IRRAD_DIA TDaily=TEMP_DIA
New PVSystem.GD_72f09ae879f4ef94d680c73c15932967053b09ae1f1996e2c172b6d054eec095_1 phases=1 bus1=2816958-11111234v.1.4 conn=wye kv=0.1100 pf=1 pmpp=1.50 kva=1.50 irradiance=1 temperature=25 %cutin=20 %cutout=20 effcurve=MyEff P-TCurve=MyPvsT Daily=IRRAD_DIA TDaily=TEMP_DIA
New PVSystem.GD_72f09ae879f4ef94d680c73c15932967053b09ae1f1996e2c172b6d054eec095_2 phases=1 bus1=2816958-11111234v.2.4 conn=wye kv=0.1100 pf=1 pmpp=1.50 kva=1.50 irradiance=1 temperature=25 %cutin=20 %cutout=20 effcurve=MyEff P-TCurve=MyPvsT Daily=IRRAD_DIA TDaily=TEMP_DIA
New PVSystem.GD_8a552bfe5c6351841406be793659ed7c715776652c744280c5a4441cc0e8c880_1 phases=1 bus1=2281302-8076754.1.4 conn=wye kv=0.1270 pf=1 pmpp=1.63 kva=1.63 irradiance=1 temperature=25 %cutin=20 %cutout=20 effcurve=MyEff P-TCurve=MyPvsT Daily=IRRAD_DIA TDaily=TEMP_DIA
New PVSystem.GD_8a552bfe5c6351841406be793659ed7c715776652c744280c5a4441cc0e8c880_2 phases=1 bus1=2281302-8076754.2.4 conn=wye kv=0.1270 pf=1 pmpp=1.63 kva=1.63 irradiance=1 temperature=25 %cutin=20 %cutout=20 effcurve=MyEff P-TCurve=MyPvsT Daily=IRRAD_DIA TDaily=TEMP_DIA
New PVSystem.GD_8a552bfe5c6351841406be793659ed7c715776652c744280c5a4441cc0e8c880_3 phases=1 bus1=2281302-8076754.3.4 conn=wye kv=0.1270 pf=1 pmpp=1.63 kva=1.63 irradiance=1 temperature=25 %cutin=20 %cutout=20 effcurve=MyEff P-TCurve=MyPvsT Daily=IRRAD_DIA TDaily=TEMP_DIA
New PVSystem.GD_6c2a666806f42d9a05aded2a2594e3c877d16633e737be3502028bac7dca04ae_1 phases=1 bus1=2281302-8076754.1.4 conn=wye kv=0.1270 pf=1 pmpp=0.25 kva=0.25 irradiance=1 temperature=25 %cutin=20 %cutout=20 effcurve=MyEff P-TCurve=MyPvsT Daily=IRRAD_DIA TDaily=TEMP_DIA
New PVSystem.GD_6c2a666806f42d9a05aded2a2594e3c877d16633e737be3502028bac7dca04ae_2 phases=1 bus1=2281302-8076754.2.4 conn=wye kv=0.1270 pf=1 pmpp=0.25 kva=0.25 irradiance=1 temperature=25 %cutin=20 %cutout=20 effcurve=MyEff P-TCurve=MyPvsT Daily=IRRAD_DIA TDaily=TEMP_DIA
New PVSystem.GD_6c2a666806f42d9a05aded2a2594e3c877d16633e737be3502028bac7dca04ae_3 phases=1 bus1=2281302-8076754.3.4 conn=wye kv=0.1270 pf=1 pmpp=0.25 kva=0.25 irradiance=1 temperature=25 %cutin=20 %cutout=20 effcurve=MyEff P-TCurve=MyPvsT Daily=IRRAD_DIA TDaily=TEMP_DIA
New PVSystem.GD_ad8d5ac12eae1f0220fa40382b7cc70d519a062037bead3596e0c9baca380657_1 phases=1 bus1=2281302-8076754.1.4 conn=wye kv=0.1270 pf=1 pmpp=0.84 kva=0.84 irradiance=1 temperature=25 %cutin=20 %cutout=20 effcurve=MyEff P-TCurve=MyPvsT Daily=IRRAD_DIA TDaily=TEMP_DIA
New PVSystem.GD_ad8d5ac12eae1f0220fa40382b7cc70d519a062037bead3596e0c9baca380657_2 phases=1 bus1=2281302-8076754.2.4 conn=wye kv=0.1270 pf=1 pmpp=0.84 kva=0.84 irradiance=1 temperature=25 %cutin=20 %cutout=20 effcurve=MyEff P-TCurve=MyPvsT Daily=IRRAD_DIA TDaily=TEMP_DIA
New PVSystem.GD_ad8d5ac12eae1f0220fa40382b7cc70d519a062037bead3596e0c9baca380657_3 phases=1 bus1=2281302-8076754.3.4 conn=wye kv=0.1270 pf=1 pmpp=0.84 kva=0.84 irradiance=1 temperature=25 %cutin=20 %cutout=20 effcurve=MyEff P-TCurve=MyPvsT Daily=IRRAD_DIA TDaily=TEMP_DIA
New PVSystem.GD_1023b7c8e690d3bfba6a13d60114232635bcfd13027160f883dc857906cbe9cc_1 phases=1 bus1=2281302-8076754.1.4 conn=wye kv=0.1270 pf=1 pmpp=0.18 kva=0.18 irradiance=1 temperature=25 %cutin=20 %cutout=20 effcurve=MyEff P-TCurve=MyPvsT Daily=IRRAD_DIA TDaily=TEMP_DIA
New PVSystem.GD_1023b7c8e690d3bfba6a13d60114232635bcfd13027160f883dc857906cbe9cc_2 phases=1 bus1=2281302-8076754.2.4 conn=wye kv=0.1270 pf=1 pmpp=0.18 kva=0.18 irradiance=1 temperature=25 %cutin=20 %cutout=20 effcurve=MyEff P-TCurve=MyPvsT Daily=IRRAD_DIA TDaily=TEMP_DIA
New PVSystem.GD_1023b7c8e690d3bfba6a13d60114232635bcfd13027160f883dc857906cbe9cc_3 phases=1 bus1=2281302-8076754.3.4 conn=wye kv=0.1270 pf=1 pmpp=0.18 kva=0.18 irradiance=1 temperature=25 %cutin=20 %cutout=20 effcurve=MyEff P-TCurve=MyPvsT Daily=IRRAD_DIA TDaily=TEMP_DIA
New PVSystem.GD_66bb5d36945f106f8c434d5d94a32e2ab8ede4e798782d0e0a9b958df9a3bb76_1 phases=1 bus1=2281302-8076754.1.4 conn=wye kv=0.1270 pf=1 pmpp=7.28 kva=7.28 irradiance=1 temperature=25 %cutin=20 %cutout=20 effcurve=MyEff P-TCurve=MyPvsT Daily=IRRAD_DIA TDaily=TEMP_DIA
New PVSystem.GD_66bb5d36945f106f8c434d5d94a32e2ab8ede4e798782d0e0a9b958df9a3bb76_2 phases=1 bus1=2281302-8076754.2.4 conn=wye kv=0.1270 pf=1 pmpp=7.28 kva=7.28 irradiance=1 temperature=25 %cutin=20 %cutout=20 effcurve=MyEff P-TCurve=MyPvsT Daily=IRRAD_DIA TDaily=TEMP_DIA
New PVSystem.GD_66bb5d36945f106f8c434d5d94a32e2ab8ede4e798782d0e0a9b958df9a3bb76_3 phases=1 bus1=2281302-8076754.3.4 conn=wye kv=0.1270 pf=1 pmpp=7.28 kva=7.28 irradiance=1 temperature=25 %cutin=20 %cutout=20 effcurve=MyEff P-TCurve=MyPvsT Daily=IRRAD_DIA TDaily=TEMP_DIA
New PVSystem.GD_c8e61ef54aafbf60e85cc9184475ca119702d0f05c38c5b24545334a881ff798_1 phases=1 bus1=2281302-8076754.1.4 conn=wye kv=0.1270 pf=1 pmpp=0.80 kva=0.80 irradiance=1 temperature=25 %cutin=20 %cutout=20 effcurve=MyEff P-TCurve=MyPvsT Daily=IRRAD_DIA TDaily=TEMP_DIA
New PVSystem.GD_c8e61ef54aafbf60e85cc9184475ca119702d0f05c38c5b24545334a881ff798_2 phases=1 bus1=2281302-8076754.2.4 conn=wye kv=0.1270 pf=1 pmpp=0.80 kva=0.80 irradiance=1 temperature=25 %cutin=20 %cutout=20 effcurve=MyEff P-TCurve=MyPvsT Daily=IRRAD_DIA TDaily=TEMP_DIA
New PVSystem.GD_c8e61ef54aafbf60e85cc9184475ca119702d0f05c38c5b24545334a881ff798_3 phases=1 bus1=2281302-8076754.3.4 conn=wye kv=0.1270 pf=1 pmpp=0.80 kva=0.80 irradiance=1 temperature=25 %cutin=20 %cutout=20 effcurve=MyEff P-TCurve=MyPvsT Daily=IRRAD_DIA TDaily=TEMP_DIA
New PVSystem.GD_1e0c457ab90b6e41f4e798ee69889cb16f0af6b02ad9fbfa85b6f27ac15d013d_1 phases=1 bus1=2275919-8041851.1.4 conn=wye kv=0.1270 pf=1 pmpp=0.84 kva=0.84 irradiance=1 temperature=25 %cutin=20 %cutout=20 effcurve=MyEff P-TCurve=MyPvsT Daily=IRRAD_DIA TDaily=TEMP_DIA
New PVSystem.GD_1e0c457ab90b6e41f4e798ee69889cb16f0af6b02ad9fbfa85b6f27ac15d013d_2 phases=1 bus1=2275919-8041851.2.4 conn=wye kv=0.1270 pf=1 pmpp=0.84 kva=0.84 irradiance=1 temperature=25 %cutin=20 %cutout=20 effcurve=MyEff P-TCurve=MyPvsT Daily=IRRAD_DIA TDaily=TEMP_DIA
New PVSystem.GD_1e0c457ab90b6e41f4e798ee69889cb16f0af6b02ad9fbfa85b6f27ac15d013d_3 phases=1 bus1=2275919-8041851.3.4 conn=wye kv=0.1270 pf=1 pmpp=0.84 kva=0.84 irradiance=1 temperature=25 %cutin=20 %cutout=20 effcurve=MyEff P-TCurve=MyPvsT Daily=IRRAD_DIA TDaily=TEMP_DIA
New PVSystem.GD_7f56ed0882d0b44b1d63a9401173e232cf6e0760cddd166a381e348e2d023b0a_1 phases=1 bus1=2275919-8041851.1.4 conn=wye kv=0.1270 pf=1 pmpp=1.13 kva=1.13 irradiance=1 temperature=25 %cutin=20 %cutout=20 effcurve=MyEff P-TCurve=MyPvsT Daily=IRRAD_DIA TDaily=TEMP_DIA
New PVSystem.GD_7f56ed0882d0b44b1d63a9401173e232cf6e0760cddd166a381e348e2d023b0a_2 phases=1 bus1=2275919-8041851.2.4 conn=wye kv=0.1270 pf=1 pmpp=1.13 kva=1.13 irradiance=1 temperature=25 %cutin=20 %cutout=20 effcurve=MyEff P-TCurve=MyPvsT Daily=IRRAD_DIA TDaily=TEMP_DIA
New PVSystem.GD_7f56ed0882d0b44b1d63a9401173e232cf6e0760cddd166a381e348e2d023b0a_3 phases=1 bus1=2275919-8041851.3.4 conn=wye kv=0.1270 pf=1 pmpp=1.13 kva=1.13 irradiance=1 temperature=25 %cutin=20 %cutout=20 effcurve=MyEff P-TCurve=MyPvsT Daily=IRRAD_DIA TDaily=TEMP_DIA
New PVSystem.GD_241cec439d5c4f1da6a944a1a26d6771e8a22eb660527cce84fefdee00d034b5_1 phases=1 bus1=2275919-8041851.1.4 conn=wye kv=0.1270 pf=1 pmpp=0.63 kva=0.63 irradiance=1 temperature=25 %cutin=20 %cutout=20 effcurve=MyEff P-TCurve=MyPvsT Daily=IRRAD_DIA TDaily=TEMP_DIA
New PVSystem.GD_241cec439d5c4f1da6a944a1a26d6771e8a22eb660527cce84fefdee00d034b5_2 phases=1 bus1=2275919-8041851.2.4 conn=wye kv=0.1270 pf=1 pmpp=0.63 kva=0.63 irradiance=1 temperature=25 %cutin=20 %cutout=20 effcurve=MyEff P-TCurve=MyPvsT Daily=IRRAD_DIA TDaily=TEMP_DIA
New PVSystem.GD_241cec439d5c4f1da6a944a1a26d6771e8a22eb660527cce84fefdee00d034b5_3 phases=1 bus1=2275919-8041851.3.4 conn=wye kv=0.1270 pf=1 pmpp=0.63 kva=0.63 irradiance=1 temperature=25 %cutin=20 %cutout=20 effcurve=MyEff P-TCurve=MyPvsT Daily=IRRAD_DIA TDaily=TEMP_DIA
New PVSystem.GD_05db3a2d57babde8a73090c4c9eb5820db31a107ddd12c39b1358f34c0410b81_1 phases=1 bus1=2275919-8041851.1.4 conn=wye kv=0.1270 pf=1 pmpp=1.35 kva=1.35 irradiance=1 temperature=25 %cutin=20 %cutout=20 effcurve=MyEff P-TCurve=MyPvsT Daily=IRRAD_DIA TDaily=TEMP_DIA
New PVSystem.GD_05db3a2d57babde8a73090c4c9eb5820db31a107ddd12c39b1358f34c0410b81_2 phases=1 bus1=2275919-8041851.2.4 conn=wye kv=0.1270 pf=1 pmpp=1.35 kva=1.35 irradiance=1 temperature=25 %cutin=20 %cutout=20 effcurve=MyEff P-TCurve=MyPvsT Daily=IRRAD_DIA TDaily=TEMP_DIA
New PVSystem.GD_05db3a2d57babde8a73090c4c9eb5820db31a107ddd12c39b1358f34c0410b81_3 phases=1 bus1=2275919-8041851.3.4 conn=wye kv=0.1270 pf=1 pmpp=1.35 kva=1.35 irradiance=1 temperature=25 %cutin=20 %cutout=20 effcurve=MyEff P-TCurve=MyPvsT Daily=IRRAD_DIA TDaily=TEMP_DIA
New PVSystem.GD_1a76217d67f4a11e4f549801af9d91fd7b0bdd7b1c7b81d9c9fa51523188e03b_1 phases=1 bus1=2275919-8041851.1.4 conn=wye kv=0.1270 pf=1 pmpp=0.41 kva=0.41 irradiance=1 temperature=25 %cutin=20 %cutout=20 effcurve=MyEff P-TCurve=MyPvsT Daily=IRRAD_DIA TDaily=TEMP_DIA
New PVSystem.GD_1a76217d67f4a11e4f549801af9d91fd7b0bdd7b1c7b81d9c9fa51523188e03b_2 phases=1 bus1=2275919-8041851.2.4 conn=wye kv=0.1270 pf=1 pmpp=0.41 kva=0.41 irradiance=1 temperature=25 %cutin=20 %cutout=20 effcurve=MyEff P-TCurve=MyPvsT Daily=IRRAD_DIA TDaily=TEMP_DIA
New PVSystem.GD_1a76217d67f4a11e4f549801af9d91fd7b0bdd7b1c7b81d9c9fa51523188e03b_3 phases=1 bus1=2275919-8041851.3.4 conn=wye kv=0.1270 pf=1 pmpp=0.41 kva=0.41 irradiance=1 temperature=25 %cutin=20 %cutout=20 effcurve=MyEff P-TCurve=MyPvsT Daily=IRRAD_DIA TDaily=TEMP_DIA
New PVSystem.GD_29f89ba8743db5252d4c7cfbca9e7b99400e49e7515a63e8a296e30908ed0710_1 phases=1 bus1=2275919-8041851.1.4 conn=wye kv=0.1270 pf=1 pmpp=0.39 kva=0.39 irradiance=1 temperature=25 %cutin=20 %cutout=20 effcurve=MyEff P-TCurve=MyPvsT Daily=IRRAD_DIA TDaily=TEMP_DIA
New PVSystem.GD_29f89ba8743db5252d4c7cfbca9e7b99400e49e7515a63e8a296e30908ed0710_2 phases=1 bus1=2275919-8041851.2.4 conn=wye kv=0.1270 pf=1 pmpp=0.39 kva=0.39 irradiance=1 temperature=25 %cutin=20 %cutout=20 effcurve=MyEff P-TCurve=MyPvsT Daily=IRRAD_DIA TDaily=TEMP_DIA
New PVSystem.GD_29f89ba8743db5252d4c7cfbca9e7b99400e49e7515a63e8a296e30908ed0710_3 phases=1 bus1=2275919-8041851.3.4 conn=wye kv=0.1270 pf=1 pmpp=0.39 kva=0.39 irradiance=1 temperature=25 %cutin=20 %cutout=20 effcurve=MyEff P-TCurve=MyPvsT Daily=IRRAD_DIA TDaily=TEMP_DIA
New PVSystem.GD_98d7473ee75fbf9099cce4c0a29fedbb2da5ebbe041844c6d82be1d9c9ebf8a2_1 phases=1 bus1=3028696-11895478.1.4 conn=wye kv=0.1270 pf=1 pmpp=0.37 kva=0.37 irradiance=1 temperature=25 %cutin=20 %cutout=20 effcurve=MyEff P-TCurve=MyPvsT Daily=IRRAD_DIA TDaily=TEMP_DIA
New PVSystem.GD_98d7473ee75fbf9099cce4c0a29fedbb2da5ebbe041844c6d82be1d9c9ebf8a2_2 phases=1 bus1=3028696-11895478.2.4 conn=wye kv=0.1270 pf=1 pmpp=0.37 kva=0.37 irradiance=1 temperature=25 %cutin=20 %cutout=20 effcurve=MyEff P-TCurve=MyPvsT Daily=IRRAD_DIA TDaily=TEMP_DIA
New PVSystem.GD_98d7473ee75fbf9099cce4c0a29fedbb2da5ebbe041844c6d82be1d9c9ebf8a2_3 phases=1 bus1=3028696-11895478.3.4 conn=wye kv=0.1270 pf=1 pmpp=0.37 kva=0.37 irradiance=1 temperature=25 %cutin=20 %cutout=20 effcurve=MyEff P-TCurve=MyPvsT Daily=IRRAD_DIA TDaily=TEMP_DIA
New PVSystem.GD_2a3d9a8e76786801af32e28292090ab87b139fd1ee378888d650c089f724e985_1 phases=1 bus1=3028696-11895478.1.4 conn=wye kv=0.1270 pf=1 pmpp=1.06 kva=1.06 irradiance=1 temperature=25 %cutin=20 %cutout=20 effcurve=MyEff P-TCurve=MyPvsT Daily=IRRAD_DIA TDaily=TEMP_DIA
New PVSystem.GD_2a3d9a8e76786801af32e28292090ab87b139fd1ee378888d650c089f724e985_2 phases=1 bus1=3028696-11895478.2.4 conn=wye kv=0.1270 pf=1 pmpp=1.06 kva=1.06 irradiance=1 temperature=25 %cutin=20 %cutout=20 effcurve=MyEff P-TCurve=MyPvsT Daily=IRRAD_DIA TDaily=TEMP_DIA
New PVSystem.GD_2a3d9a8e76786801af32e28292090ab87b139fd1ee378888d650c089f724e985_3 phases=1 bus1=3028696-11895478.3.4 conn=wye kv=0.1270 pf=1 pmpp=1.06 kva=1.06 irradiance=1 temperature=25 %cutin=20 %cutout=20 effcurve=MyEff P-TCurve=MyPvsT Daily=IRRAD_DIA TDaily=TEMP_DIA
New PVSystem.GD_fb10bba6485a06d91c32d7105b5cc896362f872297ffa3c6c61e3ea238c06363_1 phases=1 bus1=3028696-11895478.1.4 conn=wye kv=0.1270 pf=1 pmpp=1.35 kva=1.35 irradiance=1 temperature=25 %cutin=20 %cutout=20 effcurve=MyEff P-TCurve=MyPvsT Daily=IRRAD_DIA TDaily=TEMP_DIA
New PVSystem.GD_fb10bba6485a06d91c32d7105b5cc896362f872297ffa3c6c61e3ea238c06363_2 phases=1 bus1=3028696-11895478.2.4 conn=wye kv=0.1270 pf=1 pmpp=1.35 kva=1.35 irradiance=1 temperature=25 %cutin=20 %cutout=20 effcurve=MyEff P-TCurve=MyPvsT Daily=IRRAD_DIA TDaily=TEMP_DIA
New PVSystem.GD_fb10bba6485a06d91c32d7105b5cc896362f872297ffa3c6c61e3ea238c06363_3 phases=1 bus1=3028696-11895478.3.4 conn=wye kv=0.1270 pf=1 pmpp=1.35 kva=1.35 irradiance=1 temperature=25 %cutin=20 %cutout=20 effcurve=MyEff P-TCurve=MyPvsT Daily=IRRAD_DIA TDaily=TEMP_DIA
New PVSystem.GD_0769721aed9221caf3a9be189fcb88dfc7c6dea487c9b793a20fe60254149c33_1 phases=1 bus1=3028696-11895478.1.4 conn=wye kv=0.1270 pf=1 pmpp=0.81 kva=0.81 irradiance=1 temperature=25 %cutin=20 %cutout=20 effcurve=MyEff P-TCurve=MyPvsT Daily=IRRAD_DIA TDaily=TEMP_DIA
New PVSystem.GD_0769721aed9221caf3a9be189fcb88dfc7c6dea487c9b793a20fe60254149c33_2 phases=1 bus1=3028696-11895478.2.4 conn=wye kv=0.1270 pf=1 pmpp=0.81 kva=0.81 irradiance=1 temperature=25 %cutin=20 %cutout=20 effcurve=MyEff P-TCurve=MyPvsT Daily=IRRAD_DIA TDaily=TEMP_DIA
New PVSystem.GD_0769721aed9221caf3a9be189fcb88dfc7c6dea487c9b793a20fe60254149c33_3 phases=1 bus1=3028696-11895478.3.4 conn=wye kv=0.1270 pf=1 pmpp=0.81 kva=0.81 irradiance=1 temperature=25 %cutin=20 %cutout=20 effcurve=MyEff P-TCurve=MyPvsT Daily=IRRAD_DIA TDaily=TEMP_DIA
New PVSystem.GD_c7c58a2508f68b4a29cd9c3751cfa4beae165f6c9469c853aebd78d3bd01a08d_1 phases=1 bus1=3028696-11895478.1.4 conn=wye kv=0.1270 pf=1 pmpp=0.12 kva=0.12 irradiance=1 temperature=25 %cutin=20 %cutout=20 effcurve=MyEff P-TCurve=MyPvsT Daily=IRRAD_DIA TDaily=TEMP_DIA
New PVSystem.GD_c7c58a2508f68b4a29cd9c3751cfa4beae165f6c9469c853aebd78d3bd01a08d_2 phases=1 bus1=3028696-11895478.2.4 conn=wye kv=0.1270 pf=1 pmpp=0.12 kva=0.12 irradiance=1 temperature=25 %cutin=20 %cutout=20 effcurve=MyEff P-TCurve=MyPvsT Daily=IRRAD_DIA TDaily=TEMP_DIA
New PVSystem.GD_c7c58a2508f68b4a29cd9c3751cfa4beae165f6c9469c853aebd78d3bd01a08d_3 phases=1 bus1=3028696-11895478.3.4 conn=wye kv=0.1270 pf=1 pmpp=0.12 kva=0.12 irradiance=1 temperature=25 %cutin=20 %cutout=20 effcurve=MyEff P-TCurve=MyPvsT Daily=IRRAD_DIA TDaily=TEMP_DIA
New PVSystem.GD_771c78e39ae3c942941d40c511a4b1ecdf9eaf9f7644b2451640e1144c0acd3c_1 phases=1 bus1=3028696-11895478.1.4 conn=wye kv=0.1270 pf=1 pmpp=0.67 kva=0.67 irradiance=1 temperature=25 %cutin=20 %cutout=20 effcurve=MyEff P-TCurve=MyPvsT Daily=IRRAD_DIA TDaily=TEMP_DIA
New PVSystem.GD_771c78e39ae3c942941d40c511a4b1ecdf9eaf9f7644b2451640e1144c0acd3c_2 phases=1 bus1=3028696-11895478.2.4 conn=wye kv=0.1270 pf=1 pmpp=0.67 kva=0.67 irradiance=1 temperature=25 %cutin=20 %cutout=20 effcurve=MyEff P-TCurve=MyPvsT Daily=IRRAD_DIA TDaily=TEMP_DIA
New PVSystem.GD_771c78e39ae3c942941d40c511a4b1ecdf9eaf9f7644b2451640e1144c0acd3c_3 phases=1 bus1=3028696-11895478.3.4 conn=wye kv=0.1270 pf=1 pmpp=0.67 kva=0.67 irradiance=1 temperature=25 %cutin=20 %cutout=20 effcurve=MyEff P-TCurve=MyPvsT Daily=IRRAD_DIA TDaily=TEMP_DIA
New PVSystem.GD_9d7119bfe9b8859914a21db375057c46d11e91c23e7e7b305b596edfa80aab54_1 phases=1 bus1=3028696-11895478.1.4 conn=wye kv=0.1270 pf=1 pmpp=0.79 kva=0.79 irradiance=1 temperature=25 %cutin=20 %cutout=20 effcurve=MyEff P-TCurve=MyPvsT Daily=IRRAD_DIA TDaily=TEMP_DIA
New PVSystem.GD_9d7119bfe9b8859914a21db375057c46d11e91c23e7e7b305b596edfa80aab54_2 phases=1 bus1=3028696-11895478.2.4 conn=wye kv=0.1270 pf=1 pmpp=0.79 kva=0.79 irradiance=1 temperature=25 %cutin=20 %cutout=20 effcurve=MyEff P-TCurve=MyPvsT Daily=IRRAD_DIA TDaily=TEMP_DIA
New PVSystem.GD_9d7119bfe9b8859914a21db375057c46d11e91c23e7e7b305b596edfa80aab54_3 phases=1 bus1=3028696-11895478.3.4 conn=wye kv=0.1270 pf=1 pmpp=0.79 kva=0.79 irradiance=1 temperature=25 %cutin=20 %cutout=20 effcurve=MyEff P-TCurve=MyPvsT Daily=IRRAD_DIA TDaily=TEMP_DIA
New PVSystem.GD_3693313a769f14d4c796dda2d896d5dc31ad4c1a1566e31172480cdb0055772f_1 phases=1 bus1=3028696-11895478.1.4 conn=wye kv=0.1270 pf=1 pmpp=1.35 kva=1.35 irradiance=1 temperature=25 %cutin=20 %cutout=20 effcurve=MyEff P-TCurve=MyPvsT Daily=IRRAD_DIA TDaily=TEMP_DIA
New PVSystem.GD_3693313a769f14d4c796dda2d896d5dc31ad4c1a1566e31172480cdb0055772f_2 phases=1 bus1=3028696-11895478.2.4 conn=wye kv=0.1270 pf=1 pmpp=1.35 kva=1.35 irradiance=1 temperature=25 %cutin=20 %cutout=20 effcurve=MyEff P-TCurve=MyPvsT Daily=IRRAD_DIA TDaily=TEMP_DIA
New PVSystem.GD_3693313a769f14d4c796dda2d896d5dc31ad4c1a1566e31172480cdb0055772f_3 phases=1 bus1=3028696-11895478.3.4 conn=wye kv=0.1270 pf=1 pmpp=1.35 kva=1.35 irradiance=1 temperature=25 %cutin=20 %cutout=20 effcurve=MyEff P-TCurve=MyPvsT Daily=IRRAD_DIA TDaily=TEMP_DIA
New PVSystem.GD_53e00b18cb646e3125749442f5f0a08d2cbca806657ecf3568a0944bfdd922fe_1 phases=1 bus1=2815172-11087404v.1.4 conn=wye kv=0.1270 pf=1 pmpp=2.57 kva=2.57 irradiance=1 temperature=25 %cutin=20 %cutout=20 effcurve=MyEff P-TCurve=MyPvsT Daily=IRRAD_DIA TDaily=TEMP_DIA
New PVSystem.GD_53e00b18cb646e3125749442f5f0a08d2cbca806657ecf3568a0944bfdd922fe_2 phases=1 bus1=2815172-11087404v.2.4 conn=wye kv=0.1270 pf=1 pmpp=2.57 kva=2.57 irradiance=1 temperature=25 %cutin=20 %cutout=20 effcurve=MyEff P-TCurve=MyPvsT Daily=IRRAD_DIA TDaily=TEMP_DIA
New PVSystem.GD_53e00b18cb646e3125749442f5f0a08d2cbca806657ecf3568a0944bfdd922fe_3 phases=1 bus1=2815172-11087404v.3.4 conn=wye kv=0.1270 pf=1 pmpp=2.57 kva=2.57 irradiance=1 temperature=25 %cutin=20 %cutout=20 effcurve=MyEff P-TCurve=MyPvsT Daily=IRRAD_DIA TDaily=TEMP_DIA
New PVSystem.GD_2d184ce0d8812f55a94583c7bec604a134e0bde032367175b0a2e589fc426aa7_1 phases=1 bus1=2815118-11087871v.1.4 conn=wye kv=0.1270 pf=1 pmpp=2.95 kva=2.95 irradiance=1 temperature=25 %cutin=20 %cutout=20 effcurve=MyEff P-TCurve=MyPvsT Daily=IRRAD_DIA TDaily=TEMP_DIA
New PVSystem.GD_2d184ce0d8812f55a94583c7bec604a134e0bde032367175b0a2e589fc426aa7_2 phases=1 bus1=2815118-11087871v.2.4 conn=wye kv=0.1270 pf=1 pmpp=2.95 kva=2.95 irradiance=1 temperature=25 %cutin=20 %cutout=20 effcurve=MyEff P-TCurve=MyPvsT Daily=IRRAD_DIA TDaily=TEMP_DIA
New PVSystem.GD_2d184ce0d8812f55a94583c7bec604a134e0bde032367175b0a2e589fc426aa7_3 phases=1 bus1=2815118-11087871v.3.4 conn=wye kv=0.1270 pf=1 pmpp=2.95 kva=2.95 irradiance=1 temperature=25 %cutin=20 %cutout=20 effcurve=MyEff P-TCurve=MyPvsT Daily=IRRAD_DIA TDaily=TEMP_DIA
New PVSystem.GD_634b0fbea46c890c3d7fa80c0ea5347789f4ff1eee48f1303779ef1266a2b1c5_1 phases=1 bus1=3028695-11895476.1.4 conn=wye kv=0.1270 pf=1 pmpp=1.05 kva=1.05 irradiance=1 temperature=25 %cutin=20 %cutout=20 effcurve=MyEff P-TCurve=MyPvsT Daily=IRRAD_DIA TDaily=TEMP_DIA
New PVSystem.GD_634b0fbea46c890c3d7fa80c0ea5347789f4ff1eee48f1303779ef1266a2b1c5_2 phases=1 bus1=3028695-11895476.2.4 conn=wye kv=0.1270 pf=1 pmpp=1.05 kva=1.05 irradiance=1 temperature=25 %cutin=20 %cutout=20 effcurve=MyEff P-TCurve=MyPvsT Daily=IRRAD_DIA TDaily=TEMP_DIA
New PVSystem.GD_634b0fbea46c890c3d7fa80c0ea5347789f4ff1eee48f1303779ef1266a2b1c5_3 phases=1 bus1=3028695-11895476.3.4 conn=wye kv=0.1270 pf=1 pmpp=1.05 kva=1.05 irradiance=1 temperature=25 %cutin=20 %cutout=20 effcurve=MyEff P-TCurve=MyPvsT Daily=IRRAD_DIA TDaily=TEMP_DIA
New PVSystem.GD_240752535c1e29ded7f4d526720771e99c36a8735912d52b9ad9ecfb605bcb8a_1 phases=1 bus1=3028695-11895476.1.4 conn=wye kv=0.1270 pf=1 pmpp=1.10 kva=1.10 irradiance=1 temperature=25 %cutin=20 %cutout=20 effcurve=MyEff P-TCurve=MyPvsT Daily=IRRAD_DIA TDaily=TEMP_DIA
New PVSystem.GD_240752535c1e29ded7f4d526720771e99c36a8735912d52b9ad9ecfb605bcb8a_2 phases=1 bus1=3028695-11895476.2.4 conn=wye kv=0.1270 pf=1 pmpp=1.10 kva=1.10 irradiance=1 temperature=25 %cutin=20 %cutout=20 effcurve=MyEff P-TCurve=MyPvsT Daily=IRRAD_DIA TDaily=TEMP_DIA
New PVSystem.GD_240752535c1e29ded7f4d526720771e99c36a8735912d52b9ad9ecfb605bcb8a_3 phases=1 bus1=3028695-11895476.3.4 conn=wye kv=0.1270 pf=1 pmpp=1.10 kva=1.10 irradiance=1 temperature=25 %cutin=20 %cutout=20 effcurve=MyEff P-TCurve=MyPvsT Daily=IRRAD_DIA TDaily=TEMP_DIA
New PVSystem.GD_7b1a0e424b0d203979308dcff2c8a99e3a7ab4d0cc1ed48bb6d077aa4249731f_1 phases=1 bus1=3028695-11895476.1.4 conn=wye kv=0.1270 pf=1 pmpp=1.34 kva=1.34 irradiance=1 temperature=25 %cutin=20 %cutout=20 effcurve=MyEff P-TCurve=MyPvsT Daily=IRRAD_DIA TDaily=TEMP_DIA
New PVSystem.GD_7b1a0e424b0d203979308dcff2c8a99e3a7ab4d0cc1ed48bb6d077aa4249731f_2 phases=1 bus1=3028695-11895476.2.4 conn=wye kv=0.1270 pf=1 pmpp=1.34 kva=1.34 irradiance=1 temperature=25 %cutin=20 %cutout=20 effcurve=MyEff P-TCurve=MyPvsT Daily=IRRAD_DIA TDaily=TEMP_DIA
New PVSystem.GD_7b1a0e424b0d203979308dcff2c8a99e3a7ab4d0cc1ed48bb6d077aa4249731f_3 phases=1 bus1=3028695-11895476.3.4 conn=wye kv=0.1270 pf=1 pmpp=1.34 kva=1.34 irradiance=1 temperature=25 %cutin=20 %cutout=20 effcurve=MyEff P-TCurve=MyPvsT Daily=IRRAD_DIA TDaily=TEMP_DIA
New PVSystem.GD_adc024b7f381c7f8cee2c7f4a3612dd2bb8ee1da1b1c72d3f3c9235c15077da5_1 phases=1 bus1=3028695-11895476.1.4 conn=wye kv=0.1270 pf=1 pmpp=0.86 kva=0.86 irradiance=1 temperature=25 %cutin=20 %cutout=20 effcurve=MyEff P-TCurve=MyPvsT Daily=IRRAD_DIA TDaily=TEMP_DIA
New PVSystem.GD_adc024b7f381c7f8cee2c7f4a3612dd2bb8ee1da1b1c72d3f3c9235c15077da5_2 phases=1 bus1=3028695-11895476.2.4 conn=wye kv=0.1270 pf=1 pmpp=0.86 kva=0.86 irradiance=1 temperature=25 %cutin=20 %cutout=20 effcurve=MyEff P-TCurve=MyPvsT Daily=IRRAD_DIA TDaily=TEMP_DIA
New PVSystem.GD_adc024b7f381c7f8cee2c7f4a3612dd2bb8ee1da1b1c72d3f3c9235c15077da5_3 phases=1 bus1=3028695-11895476.3.4 conn=wye kv=0.1270 pf=1 pmpp=0.86 kva=0.86 irradiance=1 temperature=25 %cutin=20 %cutout=20 effcurve=MyEff P-TCurve=MyPvsT Daily=IRRAD_DIA TDaily=TEMP_DIA
New PVSystem.GD_3997458719c6bea7a2ee231b92492f488eafe509c77c95582ae279f610d26d98_1 phases=1 bus1=3028695-11895476.1.4 conn=wye kv=0.1270 pf=1 pmpp=0.32 kva=0.32 irradiance=1 temperature=25 %cutin=20 %cutout=20 effcurve=MyEff P-TCurve=MyPvsT Daily=IRRAD_DIA TDaily=TEMP_DIA
New PVSystem.GD_3997458719c6bea7a2ee231b92492f488eafe509c77c95582ae279f610d26d98_2 phases=1 bus1=3028695-11895476.2.4 conn=wye kv=0.1270 pf=1 pmpp=0.32 kva=0.32 irradiance=1 temperature=25 %cutin=20 %cutout=20 effcurve=MyEff P-TCurve=MyPvsT Daily=IRRAD_DIA TDaily=TEMP_DIA
New PVSystem.GD_3997458719c6bea7a2ee231b92492f488eafe509c77c95582ae279f610d26d98_3 phases=1 bus1=3028695-11895476.3.4 conn=wye kv=0.1270 pf=1 pmpp=0.32 kva=0.32 irradiance=1 temperature=25 %cutin=20 %cutout=20 effcurve=MyEff P-TCurve=MyPvsT Daily=IRRAD_DIA TDaily=TEMP_DIA
New PVSystem.GD_b69f599a95528b56cc3ce99b208d21606fa4539fc537736a52a41483264c3217_1 phases=1 bus1=3028695-11895476.1.4 conn=wye kv=0.1270 pf=1 pmpp=0.79 kva=0.79 irradiance=1 temperature=25 %cutin=20 %cutout=20 effcurve=MyEff P-TCurve=MyPvsT Daily=IRRAD_DIA TDaily=TEMP_DIA
New PVSystem.GD_b69f599a95528b56cc3ce99b208d21606fa4539fc537736a52a41483264c3217_2 phases=1 bus1=3028695-11895476.2.4 conn=wye kv=0.1270 pf=1 pmpp=0.79 kva=0.79 irradiance=1 temperature=25 %cutin=20 %cutout=20 effcurve=MyEff P-TCurve=MyPvsT Daily=IRRAD_DIA TDaily=TEMP_DIA
New PVSystem.GD_b69f599a95528b56cc3ce99b208d21606fa4539fc537736a52a41483264c3217_3 phases=1 bus1=3028695-11895476.3.4 conn=wye kv=0.1270 pf=1 pmpp=0.79 kva=0.79 irradiance=1 temperature=25 %cutin=20 %cutout=20 effcurve=MyEff P-TCurve=MyPvsT Daily=IRRAD_DIA TDaily=TEMP_DIA
New PVSystem.GD_c4cdaba199cf77b37f286510490945030d9c3e0858d7111c9033a9c659ea942b_1 phases=1 bus1=3028695-11895476.1.4 conn=wye kv=0.1270 pf=1 pmpp=1.21 kva=1.21 irradiance=1 temperature=25 %cutin=20 %cutout=20 effcurve=MyEff P-TCurve=MyPvsT Daily=IRRAD_DIA TDaily=TEMP_DIA
New PVSystem.GD_c4cdaba199cf77b37f286510490945030d9c3e0858d7111c9033a9c659ea942b_2 phases=1 bus1=3028695-11895476.2.4 conn=wye kv=0.1270 pf=1 pmpp=1.21 kva=1.21 irradiance=1 temperature=25 %cutin=20 %cutout=20 effcurve=MyEff P-TCurve=MyPvsT Daily=IRRAD_DIA TDaily=TEMP_DIA
New PVSystem.GD_c4cdaba199cf77b37f286510490945030d9c3e0858d7111c9033a9c659ea942b_3 phases=1 bus1=3028695-11895476.3.4 conn=wye kv=0.1270 pf=1 pmpp=1.21 kva=1.21 irradiance=1 temperature=25 %cutin=20 %cutout=20 effcurve=MyEff P-TCurve=MyPvsT Daily=IRRAD_DIA TDaily=TEMP_DIA
New PVSystem.GD_197f8a413e819e824fa6ce38aa3606d5577731c9dee061c2b4ee06da5f5b45f9_1 phases=1 bus1=3028695-11895476.1.4 conn=wye kv=0.1270 pf=1 pmpp=0.72 kva=0.72 irradiance=1 temperature=25 %cutin=20 %cutout=20 effcurve=MyEff P-TCurve=MyPvsT Daily=IRRAD_DIA TDaily=TEMP_DIA
New PVSystem.GD_197f8a413e819e824fa6ce38aa3606d5577731c9dee061c2b4ee06da5f5b45f9_2 phases=1 bus1=3028695-11895476.2.4 conn=wye kv=0.1270 pf=1 pmpp=0.72 kva=0.72 irradiance=1 temperature=25 %cutin=20 %cutout=20 effcurve=MyEff P-TCurve=MyPvsT Daily=IRRAD_DIA TDaily=TEMP_DIA
New PVSystem.GD_197f8a413e819e824fa6ce38aa3606d5577731c9dee061c2b4ee06da5f5b45f9_3 phases=1 bus1=3028695-11895476.3.4 conn=wye kv=0.1270 pf=1 pmpp=0.72 kva=0.72 irradiance=1 temperature=25 %cutin=20 %cutout=20 effcurve=MyEff P-TCurve=MyPvsT Daily=IRRAD_DIA TDaily=TEMP_DIA
New PVSystem.GD_ceeb5638f4ce4305cd2c0f1c4b91d2b68f2cd7cf730b067692d634611822625b_1 phases=1 bus1=3028695-11895476.1.4 conn=wye kv=0.1270 pf=1 pmpp=0.45 kva=0.45 irradiance=1 temperature=25 %cutin=20 %cutout=20 effcurve=MyEff P-TCurve=MyPvsT Daily=IRRAD_DIA TDaily=TEMP_DIA
New PVSystem.GD_ceeb5638f4ce4305cd2c0f1c4b91d2b68f2cd7cf730b067692d634611822625b_2 phases=1 bus1=3028695-11895476.2.4 conn=wye kv=0.1270 pf=1 pmpp=0.45 kva=0.45 irradiance=1 temperature=25 %cutin=20 %cutout=20 effcurve=MyEff P-TCurve=MyPvsT Daily=IRRAD_DIA TDaily=TEMP_DIA
New PVSystem.GD_ceeb5638f4ce4305cd2c0f1c4b91d2b68f2cd7cf730b067692d634611822625b_3 phases=1 bus1=3028695-11895476.3.4 conn=wye kv=0.1270 pf=1 pmpp=0.45 kva=0.45 irradiance=1 temperature=25 %cutin=20 %cutout=20 effcurve=MyEff P-TCurve=MyPvsT Daily=IRRAD_DIA TDaily=TEMP_DIA
New PVSystem.GD_56b26764786de9d3103fd853bdf39405f34e1b8a300ad629bbf1cce015f59686_1 phases=1 bus1=3028695-11895476.1.4 conn=wye kv=0.1270 pf=1 pmpp=0.79 kva=0.79 irradiance=1 temperature=25 %cutin=20 %cutout=20 effcurve=MyEff P-TCurve=MyPvsT Daily=IRRAD_DIA TDaily=TEMP_DIA
New PVSystem.GD_56b26764786de9d3103fd853bdf39405f34e1b8a300ad629bbf1cce015f59686_2 phases=1 bus1=3028695-11895476.2.4 conn=wye kv=0.1270 pf=1 pmpp=0.79 kva=0.79 irradiance=1 temperature=25 %cutin=20 %cutout=20 effcurve=MyEff P-TCurve=MyPvsT Daily=IRRAD_DIA TDaily=TEMP_DIA
New PVSystem.GD_56b26764786de9d3103fd853bdf39405f34e1b8a300ad629bbf1cce015f59686_3 phases=1 bus1=3028695-11895476.3.4 conn=wye kv=0.1270 pf=1 pmpp=0.79 kva=0.79 irradiance=1 temperature=25 %cutin=20 %cutout=20 effcurve=MyEff P-TCurve=MyPvsT Daily=IRRAD_DIA TDaily=TEMP_DIA
New PVSystem.GD_aa6b324f451b6d088298153c25979e7aaeef68df3abf20e98ddfc70ea2c3f606_1 phases=1 bus1=2887136-8075890.1.4 conn=wye kv=0.1270 pf=1 pmpp=0.73 kva=0.73 irradiance=1 temperature=25 %cutin=20 %cutout=20 effcurve=MyEff P-TCurve=MyPvsT Daily=IRRAD_DIA TDaily=TEMP_DIA
New PVSystem.GD_aa6b324f451b6d088298153c25979e7aaeef68df3abf20e98ddfc70ea2c3f606_2 phases=1 bus1=2887136-8075890.2.4 conn=wye kv=0.1270 pf=1 pmpp=0.73 kva=0.73 irradiance=1 temperature=25 %cutin=20 %cutout=20 effcurve=MyEff P-TCurve=MyPvsT Daily=IRRAD_DIA TDaily=TEMP_DIA
New PVSystem.GD_aa6b324f451b6d088298153c25979e7aaeef68df3abf20e98ddfc70ea2c3f606_3 phases=1 bus1=2887136-8075890.3.4 conn=wye kv=0.1270 pf=1 pmpp=0.73 kva=0.73 irradiance=1 temperature=25 %cutin=20 %cutout=20 effcurve=MyEff P-TCurve=MyPvsT Daily=IRRAD_DIA TDaily=TEMP_DIA
New PVSystem.GD_43cb38db533441ed56ea620caedaa1a8103a8e86bd7d5965cccad826122d02c2_1 phases=1 bus1=2887136-8075890.1.4 conn=wye kv=0.1270 pf=1 pmpp=0.66 kva=0.66 irradiance=1 temperature=25 %cutin=20 %cutout=20 effcurve=MyEff P-TCurve=MyPvsT Daily=IRRAD_DIA TDaily=TEMP_DIA
New PVSystem.GD_43cb38db533441ed56ea620caedaa1a8103a8e86bd7d5965cccad826122d02c2_2 phases=1 bus1=2887136-8075890.2.4 conn=wye kv=0.1270 pf=1 pmpp=0.66 kva=0.66 irradiance=1 temperature=25 %cutin=20 %cutout=20 effcurve=MyEff P-TCurve=MyPvsT Daily=IRRAD_DIA TDaily=TEMP_DIA
New PVSystem.GD_43cb38db533441ed56ea620caedaa1a8103a8e86bd7d5965cccad826122d02c2_3 phases=1 bus1=2887136-8075890.3.4 conn=wye kv=0.1270 pf=1 pmpp=0.66 kva=0.66 irradiance=1 temperature=25 %cutin=20 %cutout=20 effcurve=MyEff P-TCurve=MyPvsT Daily=IRRAD_DIA TDaily=TEMP_DIA
New PVSystem.GD_3b5985cec931f06e694dce94e43420b97007c619e70503fe05c2b4e22d0951e8_1 phases=1 bus1=2887136-8075890.1.4 conn=wye kv=0.1270 pf=1 pmpp=16.72 kva=16.72 irradiance=1 temperature=25 %cutin=20 %cutout=20 effcurve=MyEff P-TCurve=MyPvsT Daily=IRRAD_DIA TDaily=TEMP_DIA
New PVSystem.GD_3b5985cec931f06e694dce94e43420b97007c619e70503fe05c2b4e22d0951e8_2 phases=1 bus1=2887136-8075890.2.4 conn=wye kv=0.1270 pf=1 pmpp=16.72 kva=16.72 irradiance=1 temperature=25 %cutin=20 %cutout=20 effcurve=MyEff P-TCurve=MyPvsT Daily=IRRAD_DIA TDaily=TEMP_DIA
New PVSystem.GD_3b5985cec931f06e694dce94e43420b97007c619e70503fe05c2b4e22d0951e8_3 phases=1 bus1=2887136-8075890.3.4 conn=wye kv=0.1270 pf=1 pmpp=16.72 kva=16.72 irradiance=1 temperature=25 %cutin=20 %cutout=20 effcurve=MyEff P-TCurve=MyPvsT Daily=IRRAD_DIA TDaily=TEMP_DIA
New PVSystem.GD_b2d9a5e0b080503bb4d972d01fc0b46a771affe4c471b26b9ae7a20e0d4aa271_1 phases=1 bus1=2887136-8075890.1.4 conn=wye kv=0.1270 pf=1 pmpp=0.47 kva=0.47 irradiance=1 temperature=25 %cutin=20 %cutout=20 effcurve=MyEff P-TCurve=MyPvsT Daily=IRRAD_DIA TDaily=TEMP_DIA
New PVSystem.GD_b2d9a5e0b080503bb4d972d01fc0b46a771affe4c471b26b9ae7a20e0d4aa271_2 phases=1 bus1=2887136-8075890.2.4 conn=wye kv=0.1270 pf=1 pmpp=0.47 kva=0.47 irradiance=1 temperature=25 %cutin=20 %cutout=20 effcurve=MyEff P-TCurve=MyPvsT Daily=IRRAD_DIA TDaily=TEMP_DIA
New PVSystem.GD_b2d9a5e0b080503bb4d972d01fc0b46a771affe4c471b26b9ae7a20e0d4aa271_3 phases=1 bus1=2887136-8075890.3.4 conn=wye kv=0.1270 pf=1 pmpp=0.47 kva=0.47 irradiance=1 temperature=25 %cutin=20 %cutout=20 effcurve=MyEff P-TCurve=MyPvsT Daily=IRRAD_DIA TDaily=TEMP_DIA
New PVSystem.GD_0708f3c2c5cdec5333c1999123eaa71dd0cd6fe9d2a64c3c87fc55cbcf87131d_1 phases=1 bus1=3139125-12532285v.1.4 conn=wye kv=0.1270 pf=1 pmpp=0.64 kva=0.64 irradiance=1 temperature=25 %cutin=20 %cutout=20 effcurve=MyEff P-TCurve=MyPvsT Daily=IRRAD_DIA TDaily=TEMP_DIA
New PVSystem.GD_0708f3c2c5cdec5333c1999123eaa71dd0cd6fe9d2a64c3c87fc55cbcf87131d_2 phases=1 bus1=3139125-12532285v.2.4 conn=wye kv=0.1270 pf=1 pmpp=0.64 kva=0.64 irradiance=1 temperature=25 %cutin=20 %cutout=20 effcurve=MyEff P-TCurve=MyPvsT Daily=IRRAD_DIA TDaily=TEMP_DIA
New PVSystem.GD_0708f3c2c5cdec5333c1999123eaa71dd0cd6fe9d2a64c3c87fc55cbcf87131d_3 phases=1 bus1=3139125-12532285v.3.4 conn=wye kv=0.1270 pf=1 pmpp=0.64 kva=0.64 irradiance=1 temperature=25 %cutin=20 %cutout=20 effcurve=MyEff P-TCurve=MyPvsT Daily=IRRAD_DIA TDaily=TEMP_DIA
New PVSystem.GD_757ec5e1ebe0efa71c1118f2533d2413cf2c2a02b2029a6bee371be65cdd509f_1 phases=1 bus1=3139125-12532285v.1.4 conn=wye kv=0.1270 pf=1 pmpp=0.80 kva=0.80 irradiance=1 temperature=25 %cutin=20 %cutout=20 effcurve=MyEff P-TCurve=MyPvsT Daily=IRRAD_DIA TDaily=TEMP_DIA
New PVSystem.GD_757ec5e1ebe0efa71c1118f2533d2413cf2c2a02b2029a6bee371be65cdd509f_2 phases=1 bus1=3139125-12532285v.2.4 conn=wye kv=0.1270 pf=1 pmpp=0.80 kva=0.80 irradiance=1 temperature=25 %cutin=20 %cutout=20 effcurve=MyEff P-TCurve=MyPvsT Daily=IRRAD_DIA TDaily=TEMP_DIA
New PVSystem.GD_757ec5e1ebe0efa71c1118f2533d2413cf2c2a02b2029a6bee371be65cdd509f_3 phases=1 bus1=3139125-12532285v.3.4 conn=wye kv=0.1270 pf=1 pmpp=0.80 kva=0.80 irradiance=1 temperature=25 %cutin=20 %cutout=20 effcurve=MyEff P-TCurve=MyPvsT Daily=IRRAD_DIA TDaily=TEMP_DIA
New PVSystem.GD_65ac2fc523b290b8dad0d4abfeab8337a00ce9670d8333d6b4079807f22b2bd3_1 phases=1 bus1=3139125-12532285v.1.4 conn=wye kv=0.1270 pf=1 pmpp=0.72 kva=0.72 irradiance=1 temperature=25 %cutin=20 %cutout=20 effcurve=MyEff P-TCurve=MyPvsT Daily=IRRAD_DIA TDaily=TEMP_DIA
New PVSystem.GD_65ac2fc523b290b8dad0d4abfeab8337a00ce9670d8333d6b4079807f22b2bd3_2 phases=1 bus1=3139125-12532285v.2.4 conn=wye kv=0.1270 pf=1 pmpp=0.72 kva=0.72 irradiance=1 temperature=25 %cutin=20 %cutout=20 effcurve=MyEff P-TCurve=MyPvsT Daily=IRRAD_DIA TDaily=TEMP_DIA
New PVSystem.GD_65ac2fc523b290b8dad0d4abfeab8337a00ce9670d8333d6b4079807f22b2bd3_3 phases=1 bus1=3139125-12532285v.3.4 conn=wye kv=0.1270 pf=1 pmpp=0.72 kva=0.72 irradiance=1 temperature=25 %cutin=20 %cutout=20 effcurve=MyEff P-TCurve=MyPvsT Daily=IRRAD_DIA TDaily=TEMP_DIA
New PVSystem.GD_cc3b1f45623f0c0dc577d3b1a559cf2ab6a110cc436d678c02c315b5eda0e61c_1 phases=1 bus1=3139125-12532285v.1.4 conn=wye kv=0.1270 pf=1 pmpp=0.74 kva=0.74 irradiance=1 temperature=25 %cutin=20 %cutout=20 effcurve=MyEff P-TCurve=MyPvsT Daily=IRRAD_DIA TDaily=TEMP_DIA
New PVSystem.GD_cc3b1f45623f0c0dc577d3b1a559cf2ab6a110cc436d678c02c315b5eda0e61c_2 phases=1 bus1=3139125-12532285v.2.4 conn=wye kv=0.1270 pf=1 pmpp=0.74 kva=0.74 irradiance=1 temperature=25 %cutin=20 %cutout=20 effcurve=MyEff P-TCurve=MyPvsT Daily=IRRAD_DIA TDaily=TEMP_DIA
New PVSystem.GD_cc3b1f45623f0c0dc577d3b1a559cf2ab6a110cc436d678c02c315b5eda0e61c_3 phases=1 bus1=3139125-12532285v.3.4 conn=wye kv=0.1270 pf=1 pmpp=0.74 kva=0.74 irradiance=1 temperature=25 %cutin=20 %cutout=20 effcurve=MyEff P-TCurve=MyPvsT Daily=IRRAD_DIA TDaily=TEMP_DIA
New PVSystem.GD_427097b7523122b3b021f7c05c235b96f4e52261245a7178b2cafd9356d96187_1 phases=1 bus1=3139125-12532285v.1.4 conn=wye kv=0.1270 pf=1 pmpp=0.77 kva=0.77 irradiance=1 temperature=25 %cutin=20 %cutout=20 effcurve=MyEff P-TCurve=MyPvsT Daily=IRRAD_DIA TDaily=TEMP_DIA
New PVSystem.GD_427097b7523122b3b021f7c05c235b96f4e52261245a7178b2cafd9356d96187_2 phases=1 bus1=3139125-12532285v.2.4 conn=wye kv=0.1270 pf=1 pmpp=0.77 kva=0.77 irradiance=1 temperature=25 %cutin=20 %cutout=20 effcurve=MyEff P-TCurve=MyPvsT Daily=IRRAD_DIA TDaily=TEMP_DIA
New PVSystem.GD_427097b7523122b3b021f7c05c235b96f4e52261245a7178b2cafd9356d96187_3 phases=1 bus1=3139125-12532285v.3.4 conn=wye kv=0.1270 pf=1 pmpp=0.77 kva=0.77 irradiance=1 temperature=25 %cutin=20 %cutout=20 effcurve=MyEff P-TCurve=MyPvsT Daily=IRRAD_DIA TDaily=TEMP_DIA
New PVSystem.GD_725f111b80d99b592779314035513087ea29f50dd7126a95eccacbd526f27334_1 phases=1 bus1=2281295-8075269.1.4 conn=wye kv=0.1270 pf=1 pmpp=1.15 kva=1.15 irradiance=1 temperature=25 %cutin=20 %cutout=20 effcurve=MyEff P-TCurve=MyPvsT Daily=IRRAD_DIA TDaily=TEMP_DIA
New PVSystem.GD_725f111b80d99b592779314035513087ea29f50dd7126a95eccacbd526f27334_2 phases=1 bus1=2281295-8075269.2.4 conn=wye kv=0.1270 pf=1 pmpp=1.15 kva=1.15 irradiance=1 temperature=25 %cutin=20 %cutout=20 effcurve=MyEff P-TCurve=MyPvsT Daily=IRRAD_DIA TDaily=TEMP_DIA
New PVSystem.GD_725f111b80d99b592779314035513087ea29f50dd7126a95eccacbd526f27334_3 phases=1 bus1=2281295-8075269.3.4 conn=wye kv=0.1270 pf=1 pmpp=1.15 kva=1.15 irradiance=1 temperature=25 %cutin=20 %cutout=20 effcurve=MyEff P-TCurve=MyPvsT Daily=IRRAD_DIA TDaily=TEMP_DIA
New PVSystem.GD_074e32f8571fbb3306ff51366cc356dfdebe41f84210a76960903702eae7772f_1 phases=1 bus1=2281295-8075269.1.4 conn=wye kv=0.1270 pf=1 pmpp=0.17 kva=0.17 irradiance=1 temperature=25 %cutin=20 %cutout=20 effcurve=MyEff P-TCurve=MyPvsT Daily=IRRAD_DIA TDaily=TEMP_DIA
New PVSystem.GD_074e32f8571fbb3306ff51366cc356dfdebe41f84210a76960903702eae7772f_2 phases=1 bus1=2281295-8075269.2.4 conn=wye kv=0.1270 pf=1 pmpp=0.17 kva=0.17 irradiance=1 temperature=25 %cutin=20 %cutout=20 effcurve=MyEff P-TCurve=MyPvsT Daily=IRRAD_DIA TDaily=TEMP_DIA
New PVSystem.GD_074e32f8571fbb3306ff51366cc356dfdebe41f84210a76960903702eae7772f_3 phases=1 bus1=2281295-8075269.3.4 conn=wye kv=0.1270 pf=1 pmpp=0.17 kva=0.17 irradiance=1 temperature=25 %cutin=20 %cutout=20 effcurve=MyEff P-TCurve=MyPvsT Daily=IRRAD_DIA TDaily=TEMP_DIA
New PVSystem.GD_7c4336d02ce484e29b31400a3f0e16d6112848a496f8fcb226098ff64632fb63_1 phases=1 bus1=2281295-8075269.1.4 conn=wye kv=0.1270 pf=1 pmpp=1.02 kva=1.02 irradiance=1 temperature=25 %cutin=20 %cutout=20 effcurve=MyEff P-TCurve=MyPvsT Daily=IRRAD_DIA TDaily=TEMP_DIA
New PVSystem.GD_7c4336d02ce484e29b31400a3f0e16d6112848a496f8fcb226098ff64632fb63_2 phases=1 bus1=2281295-8075269.2.4 conn=wye kv=0.1270 pf=1 pmpp=1.02 kva=1.02 irradiance=1 temperature=25 %cutin=20 %cutout=20 effcurve=MyEff P-TCurve=MyPvsT Daily=IRRAD_DIA TDaily=TEMP_DIA
New PVSystem.GD_7c4336d02ce484e29b31400a3f0e16d6112848a496f8fcb226098ff64632fb63_3 phases=1 bus1=2281295-8075269.3.4 conn=wye kv=0.1270 pf=1 pmpp=1.02 kva=1.02 irradiance=1 temperature=25 %cutin=20 %cutout=20 effcurve=MyEff P-TCurve=MyPvsT Daily=IRRAD_DIA TDaily=TEMP_DIA
New PVSystem.GD_851a970c150f61aac59d4929a8b9b01c1db9d4daf6712db57f000a12ae0ff9b9_1 phases=1 bus1=2281076-8076590.1.4 conn=wye kv=0.1270 pf=1 pmpp=2.18 kva=2.18 irradiance=1 temperature=25 %cutin=20 %cutout=20 effcurve=MyEff P-TCurve=MyPvsT Daily=IRRAD_DIA TDaily=TEMP_DIA
New PVSystem.GD_851a970c150f61aac59d4929a8b9b01c1db9d4daf6712db57f000a12ae0ff9b9_2 phases=1 bus1=2281076-8076590.2.4 conn=wye kv=0.1270 pf=1 pmpp=2.18 kva=2.18 irradiance=1 temperature=25 %cutin=20 %cutout=20 effcurve=MyEff P-TCurve=MyPvsT Daily=IRRAD_DIA TDaily=TEMP_DIA
New PVSystem.GD_851a970c150f61aac59d4929a8b9b01c1db9d4daf6712db57f000a12ae0ff9b9_3 phases=1 bus1=2281076-8076590.3.4 conn=wye kv=0.1270 pf=1 pmpp=2.18 kva=2.18 irradiance=1 temperature=25 %cutin=20 %cutout=20 effcurve=MyEff P-TCurve=MyPvsT Daily=IRRAD_DIA TDaily=TEMP_DIA
New PVSystem.GD_eef903ae8da5d2d316786346af57832d3ae2e9e3215165785b7a5b9ab3df1e53_1 phases=1 bus1=2281076-8076590.1.4 conn=wye kv=0.1270 pf=1 pmpp=0.50 kva=0.50 irradiance=1 temperature=25 %cutin=20 %cutout=20 effcurve=MyEff P-TCurve=MyPvsT Daily=IRRAD_DIA TDaily=TEMP_DIA
New PVSystem.GD_eef903ae8da5d2d316786346af57832d3ae2e9e3215165785b7a5b9ab3df1e53_2 phases=1 bus1=2281076-8076590.2.4 conn=wye kv=0.1270 pf=1 pmpp=0.50 kva=0.50 irradiance=1 temperature=25 %cutin=20 %cutout=20 effcurve=MyEff P-TCurve=MyPvsT Daily=IRRAD_DIA TDaily=TEMP_DIA
New PVSystem.GD_eef903ae8da5d2d316786346af57832d3ae2e9e3215165785b7a5b9ab3df1e53_3 phases=1 bus1=2281076-8076590.3.4 conn=wye kv=0.1270 pf=1 pmpp=0.50 kva=0.50 irradiance=1 temperature=25 %cutin=20 %cutout=20 effcurve=MyEff P-TCurve=MyPvsT Daily=IRRAD_DIA TDaily=TEMP_DIA
New PVSystem.GD_e467641592cad89a1db08bf4ed7c9bd9d9407e13e76a99c936447ea2fd227a6d_1 phases=1 bus1=2281076-8076590.1.4 conn=wye kv=0.1270 pf=1 pmpp=0.58 kva=0.58 irradiance=1 temperature=25 %cutin=20 %cutout=20 effcurve=MyEff P-TCurve=MyPvsT Daily=IRRAD_DIA TDaily=TEMP_DIA
New PVSystem.GD_e467641592cad89a1db08bf4ed7c9bd9d9407e13e76a99c936447ea2fd227a6d_2 phases=1 bus1=2281076-8076590.2.4 conn=wye kv=0.1270 pf=1 pmpp=0.58 kva=0.58 irradiance=1 temperature=25 %cutin=20 %cutout=20 effcurve=MyEff P-TCurve=MyPvsT Daily=IRRAD_DIA TDaily=TEMP_DIA
New PVSystem.GD_e467641592cad89a1db08bf4ed7c9bd9d9407e13e76a99c936447ea2fd227a6d_3 phases=1 bus1=2281076-8076590.3.4 conn=wye kv=0.1270 pf=1 pmpp=0.58 kva=0.58 irradiance=1 temperature=25 %cutin=20 %cutout=20 effcurve=MyEff P-TCurve=MyPvsT Daily=IRRAD_DIA TDaily=TEMP_DIA
New PVSystem.GD_ec60c58e2a436c6ae5a869826dddca97b742e0226e3d61df4035ff2a78eaa798_1 phases=1 bus1=2281076-8076590.1.4 conn=wye kv=0.1270 pf=1 pmpp=1.01 kva=1.01 irradiance=1 temperature=25 %cutin=20 %cutout=20 effcurve=MyEff P-TCurve=MyPvsT Daily=IRRAD_DIA TDaily=TEMP_DIA
...
